tests/fuzzer/corpus_json/24_columnar_21_random_016.json
{
  "version": "1.0",
  "type": "input",
  "is_batch": false,
  "attributes": {
    "node": [
      "id",
      "u_rated"
    ],
    "source": [
      "id",
      "node",
      "status",
      "u_ref",
      "u_ref_angle",
      "sk",
      "rx_ratio",
      "z01_ratio"
    ],
    "line": [
      "id",
      "from_node",
      "to_node",
      "from_status",
      "to_status",
      "r1",
      "x1",
      "c1",
      "tan1",
      "r0",
      "x0",
      "c0",
      "tan0",
      "i_n"
    ],
    "sym_load": [
      "id",
      "node",
      "status",
      "type",
      "p_specified",
      "q_specified"
    ],
    "shunt": [
      "id",
      "node",
      "status",
      "g1",
      "b1",
      "g0",
      "b0"
    ]
  },
  "data": {
    "node": [
      [
        0,
        110000.0
      ],
      [
        1,
        110000.0
      ],
      [
        2,
        110000.0
      ],
      [
        3,
        110000.0
      ],
      [
        4,
        110000.0
      ],
      [
        5,
        110000.0
      ],
      [
        6,
        110000.0
      ]
    ],
    "source": [
      [
        7,
        0,
        1,
        0.983390525321133,
        0.0,
        480532617.53473383,
        0.2233796268919616,
        1.0
      ]
    ],
    "line": [
      [
        8,
        0,
        1,
        1,
        1,
        3.288529131971354,
        1.2942769094503914,
        6.349959241034841e-07,
        0.0,
        0.3,
        0.3,
        1e-09,
        0.0,
        20.027089891071526
      ],
      [
        9,
        1,
        2,
        1,
        1,
        1.510218523998229,
        1.6753167534885949,
        1.4195051753283404e-07,
        0.0,
        0.3,
        0.3,
        1e-09,
        0.0,
        745.9801075315986
      ],
      [
        10,
        2,
        3,
        1,
        1,
        1.5505412601747266,
        3.9462099678945046,
        9.56205037257012e-07,
        0.0,
        0.3,
        0.3,
        1e-09,
        0.0,
        260.9709449125047
      ],
      [
        11,
        3,
        4,
        1,
        1,
        4.467703519536547,
        4.038184121476416,
        6.674189689081608e-07,
        0.0,
        0.3,
        0.3,
        1e-09,
        0.0,
        37.09566012085733
      ],
      [
        12,
        4,
        5,
        1,
        1,
        2.283941641401034,
        3.1337437668272154,
        2.962256519901001e-07,
        0.0,
        0.3,
        0.3,
        1e-09,
        0.0,
        232.09215726572933
      ],
      [
        13,
        5,
        6,
        1,
        1,
        1.5489509463974305,
        1.291175239543663,
        7.878252125228973e-07,
        0.0,
        0.3,
        0.3,
        1e-09,
        0.0,
        354.30273882560334
      ]
    ],
    "sym_load": [
      [
        14,
        1,
        1,
        2,
        -65546.84795680115,
        1252.8892298075552
      ],
      [
        15,
        2,
        1,
        1,
        94776.87490523621,
        6651.411354533146
      ],
      [
        16,
        4,
        1,
        0,
        -2022.6997814932547,
        -3822.5157105567932
      ],
      [
        17,
        5,
        1,
        1,
        -86853.60973439207,
        3985.704404451524
      ]
    ],
    "shunt": [
      [
        18,
        0,
        1,
        8.424283777497127e-05,
        -1.6936152965010452e-06,
        0.0001,
        0.0001
      ]
    ]
  }
}
